data_fcc_Ar

_cell_length_a      5.3
_cell_length_b      5.3
_cell_length_c      5.3
_cell_angle_alpha  90
_cell_angle_beta   90
_cell_angle_gamma  90

loop_
_atom_site_type_symbol
_atom_site_fract_x
_atom_site_fract_y
_atom_site_fract_z
  Ar  0   0   0
  Ar  0   0.5 0.5
  Ar  0.5 0   0.5
  Ar  0.5 0.5 0.01
